[TITLE]
 Converting input file From AQUIS to EPAnet for Optimal (Re)zoning 
 Converted file include: 2 Pumps, 4 reservoirs, 1 Tank, 1 ACV, 1 PBV, 6 PRV (Fi
 5 PRV (Time-Modulated), and 162 TCV (135closed; 17 Active and 10 Opened) 

[JUNCTIONS]
;ID              	Elev        	Demand      	Pattern         
 53BWY5YY7C      	90.0000     	1.000000    	53BWY5YY7CPattern	;
 53DQV60AN2      	98.3300     	1.000000    	53DQV60AN2Pattern	;
 53EQU607IA      	95.4000     	1.000000    	53EQU607IAPattern	;
 53YVK600UI      	107.8400    	1.000000    	53YVK600UIPattern	;
 542AM601C5      	112.9000    	1.000000    	542AM601C5Pattern	;
 542D0600NS      	113.9100    	1.000000    	542D0600NSPattern	;
 543EA609HX      	99.6100     	1.000000    	543EA609HXPattern	;
 544RG604ID      	108.7100    	1.000000    	544RG604IDPattern	;
 5458X60BQ3      	99.3400     	1.000000    	5458X60BQ3Pattern	;
 545V960DIP      	97.8900     	1.000000    	545V960DIPPattern	;
 5487Y5YVEM      	121.9300    	1.000000    	5487Y5YVEMPattern	;
 5489A5YVHK      	121.9000    	1.000000    	5489A5YVHKPattern	;
 548LC60988      	106.5900    	1.000000    	548LC60988Pattern	;
 548YU60F3M      	101.7800    	1.000000    	548YU60F3MPattern	;
 549335YUKP      	122.8400    	1.000000    	549335YUKPPattern	;
 5498T600P3      	120.3100    	1.000000    	5498T600P3Pattern	;
 54CGD5YRKH      	126.2500    	1.000000    	54CGD5YRKHPattern	;
 54F2W60IUQ      	106.9300    	1.000000    	54F2W60IUQPattern	;
 54F935YQ5D      	128.4200    	1.000000    	54F935YQ5DPattern	;
 54FWF6093D      	120.0300    	1.000000    	54FWF6093DPattern	;
 54FYX608PV      	120.2600    	1.000000    	54FYX608PVPattern	;
 54HGI606PH      	122.0600    	1.000000    	54HGI606PHPattern	;
 54HKX5YVG4      	127.0200    	1.000000    	54HKX5YVG4Pattern	;
 54JPJ60KE8      	110.2100    	1.000000    	54JPJ60KE8Pattern	;
 54KY75YYR1      	127.4300    	1.000000    	54KY75YYR1Pattern	;
 54L755YKU2      	131.9500    	1.000000    	54L755YKU2Pattern	;
 54LC5601FT      	126.7400    	1.000000    	54LC5601FTPattern	;
 54LDR601DG      	126.8000    	1.000000    	54LDR601DGPattern	;
 54M4L60E1R      	120.2600    	1.000000    	54M4L60E1RPattern	;
 54PPJ5YID8      	133.4100    	1.000000    	54PPJ5YID8Pattern	;
 54QED60U2S      	100.9000    	1.000000    	54QED60U2SPattern	;
 54R1960H57      	118.0000    	1.000000    	54R1960H57Pattern	;
 54RMQ5YUJD      	130.1300    	1.000000    	54RMQ5YUJDPattern	;
 54SAS60X02      	96.8300     	1.000000    	54SAS60X02Pattern	;
 54SDV5Y921      	136.9200    	1.000000    	54SDV5Y921Pattern	;
 54SER5YGCP      	134.5100    	1.000000    	54SER5YGCPPattern	;
 54SQC60WJX      	98.1600     	1.000000    	54SQC60WJXPattern	;
 54T895YTDY      	130.6200    	1.000000    	54T895YTDYPattern	;
 54T8U60LG4      	113.7100    	1.000000    	54T8U60LG4Pattern	;
 54T9A60LK3      	113.5700    	1.000000    	54T9A60LK3Pattern	;
 54T9F605KJ      	127.3400    	1.000000    	54T9F605KJPattern	;
 54TVL5YF7Q      	135.1000    	1.000000    	54TVL5YF7QPattern	;
 54U115YEHL      	135.3600    	1.000000    	54U115YEHLPattern	;
 54U5Q60YN9      	94.9300     	1.000000    	54U5Q60YN9Pattern	;
 54V8H60UFF      	103.4700    	1.000000    	54V8H60UFFPattern	;
 54VFE5YSEA      	131.0200    	1.000000    	54VFE5YSEAPattern	;
 54VXB60L14      	115.1200    	1.000000    	54VXB60L14Pattern	;
 54WRE5Y8CC      	137.8200    	1.000000    	54WRE5Y8CCPattern	;
 54XFC607CJ      	126.9500    	1.000000    	54XFC607CJPattern	;
 54XN5606K8      	127.5300    	1.000000    	54XN5606K8Pattern	;
 5511F5YT3N      	130.6300    	1.000000    	5511F5YT3NPattern	;
 5513X5YSTP      	130.7500    	1.000000    	5513X5YSTPPattern	;
 551JY60KXG      	118.5500    	1.000000    	551JY60KXGPattern	;
 5524260YEQ      	98.6300     	1.000000    	5524260YEQPattern	;
 552UH5YHN9      	135.2400    	1.000000    	552UH5YHN9Pattern	;
 553T5607C4      	127.5900    	1.000000    	553T5607C4Pattern	;
 555JE5YUJN      	130.0000    	1.000000    	555JE5YUJNPattern	;
 556BA5YUN2      	130.0000    	1.000000    	556BA5YUN2Pattern	;
 556JD6080R      	127.0000    	1.000000    	556JD6080RPattern	;
 556NH5YIQF      	134.7000    	1.000000    	556NH5YIQFPattern	;
 558EG613L8      	103.2300    	1.000000    	558EG613L8Pattern	;
 558LY60MR8      	121.7600    	1.000000    	558LY60MR8Pattern	;
 558M4608MN      	127.4000    	1.000000    	558M4608MNPattern	;
 559IU6048D      	129.1900    	1.000000    	559IU6048DPattern	;
 55AU45YJVJ      	134.1200    	1.000000    	55AU45YJVJPattern	;
 55BYM5YUDH      	130.0000    	1.000000    	55BYM5YUDHPattern	;
 55CEM60P5V      	121.7800    	1.000000    	55CEM60P5VPattern	;
 55CI160P72      	122.4900    	1.000000    	55CI160P72Pattern	;
 55CXF5YKGP      	133.6700    	1.000000    	55CXF5YKGPPattern	;
 55EA6617HF      	103.4200    	1.000000    	55EA6617HFPattern	;
 55F7M60GH0      	124.8700    	1.000000    	55F7M60GH0Pattern	;
 55GGK60BCF      	126.4700    	1.000000    	55GGK60BCFPattern	;
 55GLF60B1U      	126.5000    	1.000000    	55GLF60B1UPattern	;
 55GY760BNG      	126.2800    	1.000000    	55GY760BNGPattern	;
 55HTL60R75      	121.6000    	1.000000    	55HTL60R75Pattern	;
 55IJB5YMBH      	131.8400    	1.000000    	55IJB5YMBHPattern	;
 55ILD61EM3      	92.8900     	1.000000    	55ILD61EM3Pattern	;
 55IM45YL85      	132.5400    	1.000000    	55IM45YL85Pattern	;
 55IR85YL91      	132.5300    	1.000000    	55IR85YL91Pattern	;
 55IS9618SU      	104.6600    	1.000000    	55IS9618SUPattern	;
 55IV2618T0      	104.7100    	1.000000    	55IV2618T0Pattern	;
 55JAL5YVWJ      	129.9100    	1.000000    	55JAL5YVWJPattern	;
 55JJV604HC      	127.0300    	1.000000    	55JJV604HCPattern	;
 55K7C5YMMI      	130.5000    	1.000000    	55K7C5YMMIPattern	;
 55KCX61FNY      	91.8400     	1.000000    	55KCX61FNYPattern	;
 55KMS61F6R      	93.3800     	1.000000    	55KMS61F6RPattern	;
 55KTT5YMTE      	131.5600    	1.000000    	55KTT5YMTEPattern	;
 55LX661GNM      	89.7700     	1.000000    	55LX661GNMPattern	;
 55M535YM8J      	132.0000    	1.000000    	55M535YM8JPattern	;
 55MGU60DQW      	124.4700    	1.000000    	55MGU60DQWPattern	;
 55N4661BA4      	102.7200    	1.000000    	55N4661BA4Pattern	;
 55N5761B8C      	102.7900    	1.000000    	55N5761B8CPattern	;
 55NUG6014H      	127.1800    	1.000000    	55NUG6014HPattern	;
 55NXJ60186      	127.1200    	1.000000    	55NXJ60186Pattern	;
 55NYQ5YVA8      	129.1800    	1.000000    	55NYQ5YVA8Pattern	;
 55P855WGGH      	159.1300    	1.000000    	55P855WGGHPattern	;
 55PLM60U7C      	120.6600    	1.000000    	55PLM60U7CPattern	;
 55PSY60TW2      	120.7500    	1.000000    	55PSY60TW2Pattern	;
 55PTU617L9      	107.9700    	1.000000    	55PTU617L9Pattern	;
 55QJU60F0P      	123.4300    	1.000000    	55QJU60F0PPattern	;
 55RKU5YW3A      	128.3000    	1.000000    	55RKU5YW3APattern	;
 55RTC60C85      	123.6600    	1.000000    	55RTC60C85Pattern	;
 55RV4600H1      	126.8100    	1.000000    	55RV4600H1Pattern	;
 55RX1600Q4      	126.7000    	1.000000    	55RX1600Q4Pattern	;
 55RY26162L      	110.3700    	1.000000    	55RY26162LPattern	;
 55S0Y5YNMC      	131.9800    	1.000000    	55S0Y5YNMCPattern	;
 55SWJ61E1M      	103.4000    	1.000000    	55SWJ61E1MPattern	;
 55SXQ61DX4      	103.5700    	1.000000    	55SXQ61DX4Pattern	;
 55UF160X13      	120.0000    	1.000000    	55UF160X13Pattern	;
 55VRB60DGX      	122.4100    	1.000000    	55VRB60DGXPattern	;
 55VVK600SB      	125.8400    	1.000000    	55VVK600SBPattern	;
 55VW660D5G      	122.4400    	1.000000    	55VW660D5GPattern	;
 55W1A601E2      	125.5500    	1.000000    	55W1A601E2Pattern	;
 55W8X60HRY      	121.4400    	1.000000    	55W8X60HRYPattern	;
 55WD260HUB      	121.4000    	1.000000    	55WD260HUBPattern	;
 55WFE60HPG      	121.4100    	1.000000    	55WFE60HPGPattern	;
 55WUD61C8B      	110.1400    	1.000000    	55WUD61C8BPattern	;
 55X755YVCQ      	127.7900    	1.000000    	55X755YVCQPattern	;
 55XIG5YTTI      	129.0100    	1.000000    	55XIG5YTTIPattern	;
 55XQ35NGJB      	110.0000    	1.000000    	55XQ35NGJBPattern	;
 55XTB610R1      	118.8900    	1.000000    	55XTB610R1Pattern	;
 55XVY5YQCV      	130.0000    	1.000000    	55XVY5YQCVPattern	;
 55XWE610TY      	118.8400    	1.000000    	55XWE610TYPattern	;
 55YH961H7Q      	104.6100    	1.000000    	55YH961H7QPattern	;
 55YNV61HBJ      	104.5900    	1.000000    	55YNV61HBJPattern	;
 560IU60JQF      	120.2200    	1.000000    	560IU60JQFPattern	;
 5610F5YQU2      	129.8400    	1.000000    	5610F5YQU2Pattern	;
 5612260C52      	121.5800    	1.000000    	5612260C52Pattern	;
 56215606LJ      	122.4100    	1.000000    	56215606LJPattern	;
 5626Q5YKGU      	133.7800    	1.000000    	5626Q5YKGUPattern	;
 562IX614DU      	117.5900    	1.000000    	562IX614DUPattern	;
 562LV614GM      	117.5900    	1.000000    	562LV614GMPattern	;
 562VP5NH6C      	110.0000    	1.000000    	562VP5NH6CPattern	;
 562YM61Q22      	92.2100     	1.000000    	562YM61Q22Pattern	;
 5645S6090V      	121.4000    	1.000000    	5645S6090VPattern	;
 564I55YS17      	128.4700    	1.000000    	564I55YS17Pattern	;
 564KM5YRTQ      	128.5800    	1.000000    	564KM5YRTQPattern	;
 564LI60MNV      	120.0000    	1.000000    	564LI60MNVPattern	;
 564WY61KAQ      	103.0300    	1.000000    	564WY61KAQPattern	;
 5657Y61KAK      	103.3200    	1.000000    	5657Y61KAKPattern	;
 565AG61KA5      	103.4200    	1.000000    	565AG61KA5Pattern	;
 565B7602Y0      	123.3200    	1.000000    	565B7602Y0Pattern	;
 565C85YSIU      	128.0800    	1.000000    	565C85YSIUPattern	;
 565PA61SIW      	89.7900     	1.000000    	565PA61SIWPattern	;
 566AQ5YLJL      	131.5700    	1.000000    	566AQ5YLJLPattern	;
 566F061T18      	89.7600     	1.000000    	566F061T18Pattern	;
 566JP5YSSD      	127.7300    	1.000000    	566JP5YSSDPattern	;
 566RG618J6      	115.7600    	1.000000    	566RG618J6Pattern	;
 5686U60D28      	120.0000    	1.000000    	5686U60D28Pattern	;
 568B960554      	121.8100    	1.000000    	568B960554Pattern	;
 568XF61AWR      	115.0700    	1.000000    	568XF61AWRPattern	;
 56A8E60SKS      	120.0000    	1.000000    	56A8E60SKSPattern	;
 56A9K5YUSW      	125.0100    	1.000000    	56A9K5YUSWPattern	;
 56AB2618X4      	116.6100    	1.000000    	56AB2618X4Pattern	;
 56ACI5YUKJ      	125.0400    	1.000000    	56ACI5YUKJPattern	;
 56ADE60T2D      	120.0000    	1.000000    	56ADE60T2DPattern	;
 56AFR60T01      	124.9900    	1.000000    	56AFR60T01Pattern	;
 56BE9621QQ      	85.1000     	1.000000    	56BE9621QQPattern	;
 56BLB60UGW      	120.0000    	1.000000    	56BLB60UGWPattern	;
 56BMH61PAB      	99.1200     	1.000000    	56BMH61PABPattern	;
 56BT861X75      	90.2100     	1.000000    	56BT861X75Pattern	;
 56BV061X4M      	90.3200     	1.000000    	56BV061X4MPattern	;
 56BYT61X7F      	90.3100     	1.000000    	56BYT61X7FPattern	;
 56CBK61P1X      	99.8100     	1.000000    	56CBK61P1XPattern	;
 56CH15YMNE      	126.7900    	1.000000    	56CH15YMNEPattern	;
 56CIX61E8E      	113.6600    	1.000000    	56CIX61E8EPattern	;
 56CJ3607LI      	120.0000    	1.000000    	56CJ3607LIPattern	;
 56CP35YVXK      	123.0200    	1.000000    	56CP35YVXKPattern	;
 56CPN60VCR      	120.0000    	1.000000    	56CPN60VCRPattern	;
 56CYS60I01      	120.0000    	1.000000    	56CYS60I01Pattern	;
 56D315YW4R      	122.7000    	1.000000    	56D315YW4RPattern	;
 56D3W5YW0X      	122.7300    	1.000000    	56D3W5YW0XPattern	;
 56DT161FMX      	112.9900    	1.000000    	56DT161FMXPattern	;
 56E41615R6      	119.1800    	1.000000    	56E41615R6Pattern	;
 56ECE61R04      	98.7400     	1.000000    	56ECE61R04Pattern	;
 56FI461H6E      	112.3400    	1.000000    	56FI461H6EPattern	;
 56FLH5YREL      	122.9000    	1.000000    	56FLH5YRELPattern	;
 56FSY60M57      	120.0000    	1.000000    	56FSY60M57Pattern	;
 56GAF6131D      	120.0000    	1.000000    	56GAF6131DPattern	;
 56GB661I2U      	111.9500    	1.000000    	56GB661I2UPattern	;
 56GJU5YY5Q      	120.0000    	1.000000    	56GJU5YY5QPattern	;
 56GKV60M4L      	120.0000    	1.000000    	56GKV60M4LPattern	;
 56GL6610HC      	121.1200    	1.000000    	56GL6610HCPattern	;
 56H4T610MS      	120.0000    	1.000000    	56H4T610MSPattern	;
 56H71621P4      	90.7000     	1.000000    	56H71621P4Pattern	;
 56HF95YY8D      	120.0000    	1.000000    	56HF95YY8DPattern	;
 56HJN60K54      	124.7500    	1.000000    	56HJN60K54Pattern	;
 56HLF627PN      	85.1000     	1.000000    	56HLF627PNPattern	;
 56HQP5YXKB      	124.4900    	1.000000    	56HQP5YXKBPattern	;
 56HRQ5NM12      	101.4000    	1.000000    	56HRQ5NM12Pattern	;
 56HX65YYS7      	120.0000    	1.000000    	56HX65YYS7Pattern	;
 56I3B5YMNJ      	122.3800    	1.000000    	56I3B5YMNJPattern	;
 56I3L611UY      	120.0000    	1.000000    	56I3L611UYPattern	;
 56I5D611SL      	120.0000    	1.000000    	56I5D611SLPattern	;
 56IM060A98      	120.0000    	1.000000    	56IM060A98Pattern	;
 56IR9623D1      	90.4500     	1.000000    	56IR9623D1Pattern	;
 56IT160ABA      	120.0000    	1.000000    	56IT160ABAPattern	;
 56J7E61TCJ      	99.1700     	1.000000    	56J7E61TCJPattern	;
 56JBN61KK5      	110.8500    	1.000000    	56JBN61KK5Pattern	;
 56JCP62952      	85.2500     	1.000000    	56JCP62952Pattern	;
 56JFC61KG1      	110.9300    	1.000000    	56JFC61KG1Pattern	;
 56JJ660JHH      	120.0000    	1.000000    	56JJ660JHHPattern	;
 56JLI60JL1      	120.0000    	1.000000    	56JLI60JL1Pattern	;
 56KF66299R      	86.0100     	1.000000    	56KF66299RPattern	;
 56KLS627MW      	87.8600     	1.000000    	56KLS627MWPattern	;
 56KMD5YS40      	120.0000    	1.000000    	56KMD5YS40Pattern	;
 56KUK61V2X      	98.9500     	1.000000    	56KUK61V2XPattern	;
 56KUV61M19      	110.2800    	1.000000    	56KUV61M19Pattern	;
 56L6L62FPF      	80.0000     	1.000000    	56L6L62FPFPattern	;
 56L7M627JD      	88.4900     	1.000000    	56L7M627JDPattern	;
 56LHH62G72      	85.8900     	1.000000    	56LHH62G72Pattern	;
 56LND62FVB      	80.0000     	1.000000    	56LND62FVBPattern	;
 56MV9625XD      	91.5400     	1.000000    	56MV9625XDPattern	;
 56MWF616MG      	118.8400    	1.000000    	56MWF616MGPattern	;
 56NF85YLYK      	120.0300    	1.000000    	56NF85YLYKPattern	;
 56NLE617C0      	118.3200    	1.000000    	56NLE617C0Pattern	;
 56NM061PH8      	108.8700    	1.000000    	56NM061PH8Pattern	;
 56P2961P78      	109.7000    	1.000000    	56P2961P78Pattern	;
 56PCJ60C4L      	120.0000    	1.000000    	56PCJ60C4LPattern	;
 56PDF62100      	97.5600     	1.000000    	56PDF62100Pattern	;
 56PE66027J      	120.0000    	1.000000    	56PE66027JPattern	;
 56PIA61PHD      	107.1900    	1.000000    	56PIA61PHDPattern	;
 56PIV60R81      	120.0000    	1.000000    	56PIV60R81Pattern	;
 56PNV60HDF      	120.0000    	1.000000    	56PNV60HDFPattern	;
 56PRN62IBE      	81.0100     	1.000000    	56PRN62IBEPattern	;
 56PYF61QRW      	108.3300    	1.000000    	56PYF61QRWPattern	;
 56Q6762HDS      	82.2900     	1.000000    	56Q6762HDSPattern	;
 56QJ05YICX      	120.5600    	1.000000    	56QJ05YICXPattern	;
 56QPF61Q9E      	109.5200    	1.000000    	56QPF61Q9EPattern	;
 56RJP62M09      	79.5500     	1.000000    	56RJP62M09Pattern	;
 56S105NQ2V      	100.0000    	1.000000    	56S105NQ2VPattern	;
 56S8C629FC      	91.2500     	1.000000    	56S8C629FCPattern	;
 56SGF61AJJ      	114.6400    	1.000000    	56SGF61AJJPattern	;
 56SK960EQV      	120.0000    	1.000000    	56SK960EQVPattern	;
 56SQ461AAA      	114.5100    	1.000000    	56SQ461AAAPattern	;
 56SUN62C0U      	89.1300     	1.000000    	56SUN62C0UPattern	;
 56T035YEHB      	121.3800    	1.000000    	56T035YEHBPattern	;
 56T2F62BP4      	89.5200     	1.000000    	56T2F62BP4Pattern	;
 56TPC62A3U      	91.2400     	1.000000    	56TPC62A3UPattern	;
 56TRP62JAM      	82.6800     	1.000000    	56TRP62JAMPattern	;
 56TTB62J7P      	82.7700     	1.000000    	56TTB62J7PPattern	;
 56UF260HNF      	116.2300    	1.000000    	56UF260HNFPattern	;
 56UH962259      	99.0900     	1.000000    	56UH962259Pattern	;
 56UM9610EU      	115.4800    	1.000000    	56UM9610EUPattern	;
 56VT462BNY      	90.6100     	1.000000    	56VT462BNYPattern	;
 56WGR61SQD      	110.0000    	1.000000    	56WGR61SQDPattern	;
 56XJY60V1F      	113.5300    	1.000000    	56XJY60V1FPattern	;
 56Y0Y5Y5F3      	126.5300    	1.000000    	56Y0Y5Y5F3Pattern	;
 56Y5Y61FAK      	110.0000    	1.000000    	56Y5Y61FAKPattern	;
 56YCV6248A      	99.3700     	1.000000    	56YCV6248APattern	;
 56YH062418      	99.6600     	1.000000    	56YH062418Pattern	;
 56YLP60QIX      	111.6900    	1.000000    	56YLP60QIXPattern	;
 56YWU628PC      	96.2000     	1.000000    	56YWU628PCPattern	;
 56YXA5Y8YD      	123.9200    	1.000000    	56YXA5Y8YDPattern	;
 5707P5Y8ID      	124.1300    	1.000000    	5707P5Y8IDPattern	;
 570EL624LN      	100.0000    	1.000000    	570EL624LNPattern	;
 570GI624K7      	100.0300    	1.000000    	570GI624K7Pattern	;
 570KH5YBLI      	121.9700    	1.000000    	570KH5YBLIPattern	;
 570KX5YALJ      	122.6200    	1.000000    	570KX5YALJPattern	;
 570QH61UBM      	109.8600    	1.000000    	570QH61UBMPattern	;
 570RI62UT0      	77.6900     	1.000000    	570RI62UT0Pattern	;
 570TQ6079W      	120.0000    	1.000000    	570TQ6079WPattern	;
 570U15Y9HR      	123.2900    	1.000000    	570U15Y9HRPattern	;
 571BM60KWK      	110.0000    	1.000000    	571BM60KWKPattern	;
 571N961HE2      	110.0000    	1.000000    	571N961HE2Pattern	;
 571QL625NE      	98.7000     	1.000000    	571QL625NEPattern	;
 572445YIDT      	120.0000    	1.000000    	572445YIDTPattern	;
 5729J62IUX      	86.5200     	1.000000    	5729J62IUXPattern	;
 572BW62E8A      	90.4900     	1.000000    	572BW62E8APattern	;
 572D362D8W      	91.8300     	1.000000    	572D362D8WPattern	;
 572D362IFI      	86.9100     	1.000000    	572D362IFIPattern	;
 572DY62IUC      	86.5900     	1.000000    	572DY62IUCPattern	;
 572MC60LQY      	110.0000    	1.000000    	572MC60LQYPattern	;
 572RW5XK0C      	131.6600    	1.000000    	572RW5XK0CPattern	;
 572Y35Y2J0      	127.2300    	1.000000    	572Y35Y2J0Pattern	;
 5731A5Y2PA      	127.1100    	1.000000    	5731A5Y2PAPattern	;
 573HL5YAMF      	121.7100    	1.000000    	573HL5YAMFPattern	;
 573I262R16      	81.2600     	1.000000    	573I262R16Pattern	;
 573RV5YMIE      	120.0000    	1.000000    	573RV5YMIEPattern	;
 573S15YAI6      	121.7100    	1.000000    	573S15YAI6Pattern	;
 573SR5YAMQ      	121.6100    	1.000000    	573SR5YAMQPattern	;
 573TS5YASQ      	121.5100    	1.000000    	573TS5YASQPattern	;
 573UD5XRGH      	130.8000    	1.000000    	573UD5XRGHPattern	;
 573VJ5XRQR      	130.7400    	1.000000    	573VJ5XRQRPattern	;
 573Y260I28      	110.1000    	1.000000    	573Y260I28Pattern	;
 5744S5YDKV      	120.0000    	1.000000    	5744S5YDKVPattern	;
 574DR5XV41      	129.4000    	1.000000    	574DR5XV41Pattern	;
 574GP5YDH7      	120.0000    	1.000000    	574GP5YDH7Pattern	;
 574HF621TT      	105.4200    	1.000000    	574HF621TTPattern	;
 574K8621S2      	105.5200    	1.000000    	574K8621S2Pattern	;
 575805Y0K3      	127.5900    	1.000000    	575805Y0K3Pattern	;
 575F25XKEW      	130.4400    	1.000000    	575F25XKEWPattern	;
 575GI5Y1GI      	127.0800    	1.000000    	575GI5Y1GIPattern	;
 575NQ5Y1PB      	126.8800    	1.000000    	575NQ5Y1PBPattern	;
 575T05Y14B      	127.1300    	1.000000    	575T05Y14BPattern	;
 5762T5YSF6      	118.9800    	1.000000    	5762T5YSF6Pattern	;
 576TE5Y4J8      	124.7100    	1.000000    	576TE5Y4J8Pattern	;
 576VW5Y4I2      	124.7100    	1.000000    	576VW5Y4I2Pattern	;
 5770060T4K      	110.0000    	1.000000    	5770060T4KPattern	;
 577725YL2E      	120.0000    	1.000000    	577725YL2EPattern	;
 577IT61LTC      	110.0000    	1.000000    	577IT61LTCPattern	;
 577IT62IKY      	89.8100     	1.000000    	577IT62IKYPattern	;
 577N85Y71M      	122.8100    	1.000000    	577N85Y71MPattern	;
 577VQ5Y6S9      	122.9000    	1.000000    	577VQ5Y6S9Pattern	;
 577XS5XR1X      	128.8600    	1.000000    	577XS5XR1XPattern	;
 578325XRV1      	128.5200    	1.000000    	578325XRV1Pattern	;
 5783H5YNQF      	120.0000    	1.000000    	5783H5YNQFPattern	;
 578DC5YNL6      	120.0000    	1.000000    	578DC5YNL6Pattern	;
 578HB5Y7VG      	121.9900    	1.000000    	578HB5Y7VGPattern	;
 578J85Y0B4      	125.8300    	1.000000    	578J85Y0B4Pattern	;
 578NS5Y08W      	125.7900    	1.000000    	578NS5Y08WPattern	;
 578SR5YXTJ      	114.9800    	1.000000    	578SR5YXTJPattern	;
 578V962XR5      	80.0000     	1.000000    	578V962XR5Pattern	;
 5791E625D4      	104.2200    	1.000000    	5791E625D4Pattern	;
 579DW60RCA      	110.0000    	1.000000    	579DW60RCAPattern	;
 579ES5Y7EV      	122.0100    	1.000000    	579ES5Y7EVPattern	;
 579I660EGW      	110.0000    	1.000000    	579I660EGWPattern	;
 579KI60EEE      	110.0000    	1.000000    	579KI60EEEPattern	;
 579NL62T8W      	81.8700     	1.000000    	579NL62T8WPattern	;
 579QI5XQPB      	127.7000    	1.000000    	579QI5XQPBPattern	;
 579TW62T9X      	81.9100     	1.000000    	579TW62T9XPattern	;
 57A4R60164      	114.8000    	1.000000    	57A4R60164Pattern	;
 57A9L5YSJV      	120.0000    	1.000000    	57A9L5YSJVPattern	;
 57AWT5YBBT      	120.0000    	1.000000    	57AWT5YBBTPattern	;
 57B0B6334Y      	80.0000     	1.000000    	57B0B6334YPattern	;
 57B1S62MQU      	87.9500     	1.000000    	57B1S62MQUPattern	;
 57BC362IGE      	92.2500     	1.000000    	57BC362IGEPattern	;
 57BFW5YM3J      	120.0000    	1.000000    	57BFW5YM3JPattern	;
 57BSD62YHQ      	80.0000     	1.000000    	57BSD62YHQPattern	;
 57BVB5YAX0      	120.0000    	1.000000    	57BVB5YAX0Pattern	;
 57BXY5Q0LB      	113.0200    	1.000000    	57BXY5Q0LBPattern	;
 57BY960T2N      	108.2200    	1.000000    	57BY960T2NPattern	;
 57C2M5YWQM      	116.2600    	1.000000    	57C2M5YWQMPattern	;
 57C8D604L6      	110.0000    	1.000000    	57C8D604L6Pattern	;
 57C995XXC7      	124.0400    	1.000000    	57C995XXC7Pattern	;
 57CCC5YWKX      	116.3800    	1.000000    	57CCC5YWKXPattern	;
 57CDI5YEF9      	120.0000    	1.000000    	57CDI5YEF9Pattern	;
 57CFA5YWRT      	116.2100    	1.000000    	57CFA5YWRTPattern	;
 57CI85YDLL      	120.0000    	1.000000    	57CI85YDLLPattern	;
 57CNT5YY0F      	115.0200    	1.000000    	57CNT5YY0FPattern	;
 57CSS62TRE      	82.8500     	1.000000    	57CSS62TREPattern	;
 57CYD5YXVG      	115.1200    	1.000000    	57CYD5YXVGPattern	;
 57D1K5YE6A      	120.0000    	1.000000    	57D1K5YE6APattern	;
 57D3X5Y0U2      	124.0000    	1.000000    	57D3X5Y0U2Pattern	;
 57D765Y0SQ      	124.0000    	1.000000    	57D765Y0SQPattern	;
 57D7L5YNPE      	120.0000    	1.000000    	57D7L5YNPEPattern	;
 57DJY5XPBU      	126.7700    	1.000000    	57DJY5XPBUPattern	;
 57DT76018W      	112.8100    	1.000000    	57DT76018WPattern	;
 57E256015D      	112.9000    	1.000000    	57E256015DPattern	;
 57E7561Q1B      	107.7900    	1.000000    	57E7561Q1BPattern	;
 57EA361PTP      	110.0000    	1.000000    	57EA361PTPPattern	;
 57EAD5XQ91      	125.7800    	1.000000    	57EAD5XQ91Pattern	;
 57EAN5YT9U      	117.9900    	1.000000    	57EAN5YT9UPattern	;
 57EE75XNKP      	127.0100    	1.000000    	57EE75XNKPPattern	;
 57EEC61PIJ      	108.0000    	1.000000    	57EEC61PIJPattern	;
 57EFT5YEF9      	120.0000    	1.000000    	57EFT5YEF9Pattern	;
 57EI16019C      	112.7700    	1.000000    	57EI16019CPattern	;
 57EIG5Y48M      	121.5500    	1.000000    	57EIG5Y48MPattern	;
 57EPH5YHAL      	120.0000    	1.000000    	57EPH5YHALPattern	;
 57EUS5Y50D      	121.2600    	1.000000    	57EUS5Y50DPattern	;
 57EVT603WS      	110.2000    	1.000000    	57EVT603WSPattern	;
 57EXQ5Y4XR      	121.2100    	1.000000    	57EXQ5Y4XRPattern	;
 57F185YQ9X      	118.6600    	1.000000    	57F185YQ9XPattern	;
 57F3562I1E      	93.6100     	1.000000    	57F3562I1EPattern	;
 57F6D5YHHY      	120.0000    	1.000000    	57F6D5YHHYPattern	;
 57FDV603L7      	110.4800    	1.000000    	57FDV603L7Pattern	;
 57FJ6609B1      	110.0000    	1.000000    	57FJ6609B1Pattern	;
 57FKX62HHL      	94.1500     	1.000000    	57FKX62HHLPattern	;
 57FLI60ILX      	106.9600    	1.000000    	57FLI60ILXPattern	;
 57FQ75YGME      	120.0000    	1.000000    	57FQ75YGMEPattern	;
 57G565YJVJ      	119.3400    	1.000000    	57G565YJVJPattern	;
 57G5B5XMAK      	127.3100    	1.000000    	57G5B5XMAKPattern	;
 57G7360HP1      	107.0200    	1.000000    	57G7360HP1Pattern	;
 57G9V5YLB3      	118.6800    	1.000000    	57G9V5YLB3Pattern	;
 57GAR5PTXN      	106.5500    	1.000000    	57GAR5PTXNPattern	;
 57GBH5YJSR      	119.2200    	1.000000    	57GBH5YJSRPattern	;
 57GMY5YXIP      	114.8100    	1.000000    	57GMY5YXIPPattern	;
 57GQ65YL4L      	118.3700    	1.000000    	57GQ65YL4LPattern	;
 57GSD60WP2      	103.5300    	1.000000    	57GSD60WP2Pattern	;
 57GUQ5PUEP      	106.6200    	1.000000    	57GUQ5PUEPPattern	;
 57H2X5YMPA      	117.6500    	1.000000    	57H2X5YMPAPattern	;
 57H4U60TCI      	100.1200    	1.000000    	57H4U60TCIPattern	;
 57H6L62I2V      	93.8500     	1.000000    	57H6L62I2VPattern	;
 57H7X5YMLX      	117.5400    	1.000000    	57H7X5YMLXPattern	;
 57HB65YP9T      	117.1600    	1.000000    	57HB65YP9TPattern	;
 57HCM62748      	104.2900    	1.000000    	57HCM62748Pattern	;
 57HDD5YJQ9      	118.3400    	1.000000    	57HDD5YJQ9Pattern	;
 57HE95Y3WB      	120.0000    	1.000000    	57HE95Y3WBPattern	;
 57HFF60UJJ      	100.4300    	1.000000    	57HFF60UJJPattern	;
 57HGG5Y41Q      	120.0000    	1.000000    	57HGG5Y41QPattern	;
 57HMX5XK91      	128.3100    	1.000000    	57HMX5XK91Pattern	;
 57HTT5YPM1      	116.6700    	1.000000    	57HTT5YPM1Pattern	;
 57HXM5YPJY      	116.5900    	1.000000    	57HXM5YPJYPattern	;
 57IAP60N5G      	103.1100    	1.000000    	57IAP60N5GPattern	;
 57IBK627BV      	100.0000    	1.000000    	57IBK627BVPattern	;
 57IC15Y2RS      	120.0000    	1.000000    	57IC15Y2RSPattern	;
 57IHG5YRRD      	115.6400    	1.000000    	57IHG5YRRDPattern	;
 57IL05Y3CM      	120.0000    	1.000000    	57IL05Y3CMPattern	;
 57IUD5YRME      	115.9900    	1.000000    	57IUD5YRMEPattern	;
 57IUN60L31      	103.5000    	1.000000    	57IUN60L31Pattern	;
 57IYC5Y7QB      	120.0000    	1.000000    	57IYC5Y7QBPattern	;
 57J1U5Y7P5      	120.0000    	1.000000    	57J1U5Y7P5Pattern	;
 57J2F5XGY9      	130.8300    	1.000000    	57J2F5XGY9Pattern	;
 57J5D5XMQK      	126.4300    	1.000000    	57J5D5XMQKPattern	;
 57JLE60FEI      	106.0700    	1.000000    	57JLE60FEIPattern	;
 57JQI62FLM      	97.6200     	1.000000    	57JQI62FLMPattern	;
 57JXA62FNE      	97.5700     	1.000000    	57JXA62FNEPattern	;
 57K1361WSB      	101.4500    	1.000000    	57K1361WSBPattern	;
 57K2E5PQ82      	102.2900    	1.000000    	57K2E5PQ82Pattern	;
 57K5S5YU6F      	113.7600    	1.000000    	57K5S5YU6FPattern	;
 57K795YU9I      	113.7100    	1.000000    	57K795YU9IPattern	;
 57KF261SKT      	110.0000    	1.000000    	57KF261SKTPattern	;
 57KF75PXW3      	107.4700    	1.000000    	57KF75PXW3Pattern	;
 57KGT5PY0R      	107.5300    	1.000000    	57KGT5PY0RPattern	;
 57KIK60FGK      	105.6500    	1.000000    	57KIK60FGKPattern	;
 57KMJ5YBM4      	119.2100    	1.000000    	57KMJ5YBM4Pattern	;
 57KPG5YBQC      	119.1200    	1.000000    	57KPG5YBQCPattern	;
 57L2D61TUW      	100.4900    	1.000000    	57L2D61TUWPattern	;
 57L4Q61X5D      	103.5100    	1.000000    	57L4Q61X5DPattern	;
 57L955YTSH      	113.0200    	1.000000    	57L955YTSHPattern	;
 57LMT5XAYA      	133.2400    	1.000000    	57LMT5XAYAPattern	;
 57LNJ5PXT0      	106.8300    	1.000000    	57LNJ5PXT0Pattern	;
 57LQW602JW      	110.0600    	1.000000    	57LQW602JWPattern	;
 57LV65QKDT      	120.0000    	1.000000    	57LV65QKDTPattern	;
 57LVB5YI8N      	114.7900    	1.000000    	57LVB5YI8NPattern	;
 57LX361S6E      	100.7600    	1.000000    	57LX361S6EPattern	;
 57LXT5QKH2      	120.0000    	1.000000    	57LXT5QKH2Pattern	;
 57M0Q5QKFF      	120.0000    	1.000000    	57M0Q5QKFFPattern	;
 57MDI5YN2M      	113.1700    	1.000000    	57MDI5YN2MPattern	;
 57MH25PMNV      	99.6400     	1.000000    	57MH25PMNVPattern	;
 57MH25Y1NQ      	120.0000    	1.000000    	57MH25Y1NQPattern	;
 57MIY61PFB      	102.3500    	1.000000    	57MIY61PFBPattern	;
 57MMS5Y1RT      	120.0000    	1.000000    	57MMS5Y1RTPattern	;
 57MRB61LDX      	104.4500    	1.000000    	57MRB61LDXPattern	;
 57MSH5YXTP      	110.7700    	1.000000    	57MSH5YXTPPattern	;
 57N0462IQN      	93.7000     	1.000000    	57N0462IQNPattern	;
 57N4362IR4      	93.6700     	1.000000    	57N4362IR4Pattern	;
 57N4I60LL4      	101.1300    	1.000000    	57N4I60LL4Pattern	;
 57N6Q5XN71      	127.0400    	1.000000    	57N6Q5XN71Pattern	;
 57N9N60L4C      	101.3100    	1.000000    	57N9N60L4CPattern	;
 57N9T5QK7M      	119.6100    	1.000000    	57N9T5QK7MPattern	;
 57NET60IGX      	102.7000    	1.000000    	57NET60IGXPattern	;
 57NG05YAGP      	119.1700    	1.000000    	57NG05YAGPPattern	;
 57NH661I0C      	106.4500    	1.000000    	57NH661I0CPattern	;
 57NHR60IB2      	102.7900    	1.000000    	57NHR60IB2Pattern	;
 57NIS5Q5FQ      	111.5400    	1.000000    	57NIS5Q5FQPattern	;
 57NLV5PW20      	104.5800    	1.000000    	57NLV5PW20Pattern	;
 57NVE5Q5SC      	110.8200    	1.000000    	57NVE5Q5SCPattern	;
 57NY762G49      	97.0200     	1.000000    	57NY762G49Pattern	;
 57P0I60ECC      	104.4000    	1.000000    	57P0I60ECCPattern	;
 57P0I61IKX      	105.7600    	1.000000    	57P0I61IKXPattern	;
 57P2562G44      	97.0100     	1.000000    	57P2562G44Pattern	;
 57P315X5JB      	135.0600    	1.000000    	57P315X5JBPattern	;
 57P5I5PKNC      	98.3200     	1.000000    	57P5I5PKNCPattern	;
 57PHA5Q4IU      	109.8700    	1.000000    	57PHA5Q4IUPattern	;
 57PHA60J2C      	101.9600    	1.000000    	57PHA60J2CPattern	;
 57PMA60J94      	101.7900    	1.000000    	57PMA60J94Pattern	;
 57PRE5YD3Y      	116.6100    	1.000000    	57PRE5YD3YPattern	;
 57Q0H602U1      	110.0000    	1.000000    	57Q0H602U1Pattern	;
 57QGT60JXX      	101.0800    	1.000000    	57QGT60JXXPattern	;
 57QNQ5YH5R      	113.0400    	1.000000    	57QNQ5YH5RPattern	;
 57QQ76207D      	100.0000    	1.000000    	57QQ76207DPattern	;
 57QT55Y9CR      	119.2400    	1.000000    	57QT55Y9CRPattern	;