[TITLE]

[PDD]
; Option    Value
TYPE        BBLAWN


[JUNCTIONS]
;ID              	Elev        	
 J511            	105.08      	
 J411            	8.95        	
 J414            	34.36       	
 J415            	65          	
 J416            	42.6        	
 J417            	37.38       	
 J418            	37.39       	
 J419            	40.5        	
 J310            	51.84       	
 J311            	55.95       	
 J312            	68.48       	
 J313            	67.66       	
 J314            	14.94       	
 J315            	16.03       	
 J316            	12.98       	
 J318            	53.67       	
 J319            	39.29       	
 J210            	7.01        	
 J211            	11.27       	
 J212            	7.87        	
 J214            	8.67        	
 J217            	10.98       	
 J218            	7.68        	
 J219            	52          	
 J110            	15.92       	
 J420            	39.99       	
 J421            	37.09       	
 J422            	38.81       	
 J1153           	22.14       	
 J1154           	14.61       	
 J1155           	15.54       	
 J425            	64.42       	
 J426            	72.71       	
 J1157           	22.21       	
 J427            	67.65       	
 J1158           	28.25       	
 J428            	16.2        	
 J429            	12.56       	
 J320            	46.73       	
 J321            	44.59       	
 J322            	48.02       	
 J324            	42.38       	
 J1056           	7.64        	
 J327            	49.68       	
 J1058           	13.58       	
 J328            	45.69       	
 J329            	44.05       	
 J220            	80          	
 J221            	77.07       	
 J225            	13.33       	
 J226            	11.1        	
 J50             	71.8        	
 J51             	77.42       	
 J53             	85          	
 J54             	80          	
 J128            	85.26       	
 J55             	71          	
 J129            	62.85       	
 J56             	72          	
 J57             	59          	
 J58             	76          	
 J59             	57          	
 J1160           	24.91       	
 J1161           	25.25       	
 J431            	16.9        	
 J432            	19.88       	
 J433            	27.35       	
 J434            	16.48       	
 J435            	12.15       	
 J436            	17.68       	
 J438            	10.43       	
 J1169           	55.42       	
 J439            	17.78       	
 J330            	58.25       	
 J331            	59.26       	
 J332            	44.18       	
 J333            	25.7        	
 J334            	29.28       	
 J335            	25.08       	
 J336            	23.81       	
 J337            	22.11       	
 J231            	71.9        	
 J232            	69.81       	
 J233            	74.23       	
 J234            	64.06       	
 J236            	58          	
 J237            	73.14       	
 J130            	54.52       	
 J131            	88.05       	
 J132            	74.55       	
 J133            	69.58       	
 J60             	55          	
 J134            	80.7        	
 J135            	70          	
 J62             	60          	
 J64             	82          	
 J65             	82          	
 J66             	72          	
 J67             	81          	
 J68             	73          	
 J69             	71          	
 J1170           	54.54       	
 J441            	69          	
 J444            	29.46       	
 J341            	14.89       	
 J344            	54.7        	
 J345            	49.97       	
 J347            	54.4        	
 J348            	62.18       	
 J349            	36.41       	
 J241            	70          	
 J242            	65          	
 J243            	60          	
 J244            	70          	
 J245            	71          	
 J246            	55          	
 J247            	57          	
 J248            	54          	
 J249            	50          	
 J142            	5.53        	
 J143            	6.3         	
 J70             	70          	
 J144            	4.17        	
 J71             	77          	
 J72             	75          	
 J73             	80          	
 J74             	75          	
 J76             	70          	
 J77             	76          	
 J78             	60.56       	
 J350            	33.82       	
 J351            	25.51       	
 J352            	47.55       	
 J353            	22.64       	
 J354            	18.68       	
 J355            	28.87       	
 J358            	22.3        	
 J359            	17.57       	
 J250            	67          	
 J251            	75.19       	
 J252            	83.82       	
 J253            	74.69       	
 J254            	74.59       	
 J257            	105.58      	
 J154            	43.69       	
 J155            	44.41       	
 J82             	70.87       	
 J156            	56.16       	
 J83             	61.07       	
 J84             	43.82       	
 J85             	45          	
 J159            	37.41       	
 J86             	50          	
 J87             	42.63       	
 J89             	68.29       	
 J360            	20.71       	
 J361            	26.67       	
 J362            	43.66       	
 J363            	72.23       	
 J364            	65          	
 J365            	29.83       	
 J366            	14.46       	
 J1208           	42.74       	
 J367            	13.6        	
 J369            	20.27       	
 J160            	43.69       	
 J161            	22.81       	
 J162            	36.88       	
 J163            	16.2        	
 J164            	17.34       	
 J91             	64.09       	
 J165            	16.69       	
 J166            	23.95       	
 J167            	23.91       	
 J94             	30.75       	
 J95             	22.56       	
 J96             	30          	
 J97             	34.19       	
 J976            	6.3         	
 J571            	77.11       	
 J572            	76.4        	
 J573            	81.62       	
 J574            	67.36       	
 J575            	75.27       	
 J576            	80.8        	
 J370            	20.46       	
 J371            	68.81       	
 J372            	23.2        	
 J373            	27.22       	
 J374            	13.7        	
 J375            	22.72       	
 J376            	12.18       	
 J377            	13.12       	
 J1219           	14.48       	
 J379            	10.25       	
 J171            	8.81        	
 J172            	6.25        	
 J173            	13          	
 J174            	6.11        	
 J175            	6.84        	
 J177            	13.14       	
 J179            	15.01       	
 J580            	113.08      	
 J486            	86.11       	
 J487            	79          	
 J488            	89.16       	
 J489            	85.02       	
 J381            	36.02       	
 J1223           	3.48        	
 J382            	70.42       	
 J384            	42.51       	
 J385            	76.6        	
 J180            	8.77        	
 J181            	10.94       	
 J1024           	5.83        	
 J183            	13.28       	
 J1025           	8.61        	
 J186            	9.38        	
 J187            	9.81        	
 J188            	8.51        	
 J189            	7.58        	
 J490            	103.84      	
 J491            	76.93       	
 J492            	94.67       	
 J493            	77.62       	
 J494            	112.76      	
 J495            	91.15       	
 J496            	106.34      	
 J497            	112.63      	
 J498            	90.12       	
 J500            	75.52       	
 J499            	72.24       	
 J501            	80.97       	
 J502            	80.99       	
 J503            	99.65       	
 J504            	66.71       	
 J394            	70.53       	
 J509            	99.94       	
 J399            	75          	
 J401            	70          	
 J406            	71.74       	
 J295            	56.42       	
 J407            	68          	
 J296            	30.91       	
 J408            	7.93        	
 J297            	79.05       	
 J298            	77.46       	
 J191            	5.76        	
 J303            	50.42       	
 J192            	12.4        	
 J193            	12.99       	
 J305            	47.11       	
 J194            	13.46       	
 J195            	15.39       	
 J196            	13.35       	
 J308            	33.24       	
 J198            	18.54       	
 J200            	15.75       	
 J199            	16.26       	
 J201            	44.86       	
 J202            	10.41       	
 J203            	11.03       	
 J204            	21.51       	
 J205            	16.66       	
 J206            	14.12       	
 J207            	18.86       	
 J208            	11.25       	
 J101            	28.65       	
 J102            	46.96       	
 J109            	17.47       	
 J1              	16.82       	
 J2              	11.97       	
 J3              	29.02       	
 J4              	20.88       	
 J5              	22.75       	
 J6              	15.25       	
 J7              	24.91       	
 J8              	31.17       	
 J9              	31.89       	
 J10             	14.62       	
 J11             	18.43       	
 J12             	29.27       	
 J13             	32.04       	
 J14             	37.91       	
 J15             	102.84      	
 J16             	88.89       	
 J17             	82.75       	
 J18             	84.96       	
 J19             	90.94       	
 J20             	80          	
 J21             	80          	
 J22             	82.74       	
 J23             	75.96       	
 J25             	94.13       	
 J26             	76.35       	
 J27             	82.08       	
 J28             	45          	
 J29             	49          	
 J30             	72.01       	
 J31             	69.78       	
 J32             	45          	
 J33             	48          	
 J34             	50          	
 J35             	67.78       	
 J36             	51.08       	
 J37             	66.19       	
 J38             	47          	
 J24             	34.53       	
 J39             	45.88       	
 J40             	12.8        	
 J123            	38.41       	
 J140            	39.94       	
 J141            	41.45       	
 J157            	31.49       	
 J158            	25.88       	
 J168            	40.21       	
 J170            	46.87       	
 J176            	50.64       	
 J178            	58.87       	
 J184            	56.09       	
 J185            	43.71       	
 J190            	58.49       	
 J197            	41.86       	
 J213            	52.07       	
 J215            	75.76       	
 J216            	53.06       	
 J227            	52.89       	
 J238            	44.16       	
 J239            	43.49       	
 J255            	35.31       	
 J256            	40          	
 J258            	51.24       	
 J260            	32.53       	
 J265            	50.87       	
 J266            	39.83       	
 J267            	22.31       	
 J61             	72          	
 J92             	72          	
 J268            	69.68       	
 J278            	104.29      	
 J281            	83.72       	
 J283            	94.06       	
 J284            	77.38       	
 J136            	81.8        	
 J137            	9.11        	
 J145            	47.46       	
 J118            	75          	
 J52             	54.7        	
 J81             	50          	
 J88             	45          	
 J90             	84          	
 J93             	65          	
 J147            	68          	
 J148            	50          	
 J149            	40          	
 J150            	60          	
 J151            	60          	
 J152            	32          	
 J153            	60          	
 J169            	42          	
 J182            	40          	
 J222            	32          	
 J224            	37          	
 J230            	30          	
 J235            	53          	
 J240            	87          	
 J269            	56          	
 J273            	56          	
 J274            	56          	
 J276            	56          	
 J280            	56          	
 J285            	56          	
 J287            	40          	
 J288            	40          	
 J289            	40          	
 J290            	40          	
 J291            	65          	
 J292            	40          	
 J299            	40          	
 J300            	40          	
 J301            	44          	
 J302            	44          	
 J304            	44          	
 J306            	44          	
 J307            	44          	
 J309            	44          	
 J317            	44          	
 J323            	44          	

[DEMANDS]
;Junction        	Demand      	Pattern         	Category
 J511            	1.175912    	DMA2_pat        	
 J411            	.8890401    	DMA1_pat        	
 J414            	.9658645    	DMA1_pat        	
 J415            	0           	                	
 J416            	0           	                	
 J417            	1.291233    	DMA1_pat        	
 J418            	0           	                	
 J419            	0           	                	
 J310            	1.357483    	DMA4_pat        	
 J311            	1.18173     	DMA4_pat        	
 J312            	7.558805E-02	DMA4_pat        	
 J313            	.6900545    	DMA4_pat        	
 J314            	1.437699    	DMA1_pat        	
 J315            	1.317467    	DMA1_pat        	
 J316            	.6225603    	DMA1_pat        	
 J318            	1.603255    	DMA4_pat        	
 J319            	1.45241     	DMA4_pat        	
 J210            	9.372806E-02	DMA1_pat        	
 J211            	1.582595    	DMA1_pat        	
 J212            	.6066978    	DMA1_pat        	
 J214            	.8747806    	DMA1_pat        	
 J217            	1.27852     	DMA1_pat        	
 J218            	8.917417E-02	DMA1_pat        	
 J219            	.9874303    	DMA5_pat        	
 J110            	.781167     	DMA1_pat        	
 J420            	0           	                	
 J421            	1.037828    	DMA1_pat        	
 J422            	0           	                	
 J1153           	.439655     	DMA1_pat        	
 J1154           	.46557      	DMA1_pat        	
 J1155           	1.383003    	DMA1_pat        	
 J425            	0           	                	
 J426            	0           	                	
 J1157           	1.643489    	DMA1_pat        	
 J427            	0           	                	
 J1158           	.37811      	DMA1_pat        	
 J428            	1.158526    	DMA1_pat        	
 J429            	1.633339    	DMA1_pat        	
 J320            	.4065523    	DMA4_pat        	
 J321            	.8897884    	DMA4_pat        	
 J322            	.1772828    	DMA4_pat        	
 J324            	1.665691    	DMA4_pat        	
 J1056           	1.12696     	DMA1_pat        	
 J327            	2.617306E-02	DMA4_pat        	
 J1058           	.9586397    	DMA1_pat        	
 J328            	.1667536    	DMA4_pat        	
 J329            	.1717045    	DMA4_pat        	
 J220            	1.331474    	DMA5_pat        	
 J221            	.4741339    	DMA4_pat        	
 J225            	7.608195E-02	DMA1_pat        	
 J226            	.4929547    	DMA1_pat        	
 J50             	.6366845    	DMA4_pat        	
 J51             	.5016175    	DMA4_pat        	
 J53             	1.580952    	DMA5_pat        	
 J54             	1.633049    	DMA5_pat        	
 J128            	.6689573    	DMA2_pat        	
 J55             	.4638       	DMA5_pat        	
 J129            	.2674025    	DMA2_pat        	
 J56             	.2713695    	DMA5_pat        	
 J57             	1.077645    	DMA5_pat        	
 J58             	.6834553    	DMA5_pat        	
 J59             	.6879447    	DMA5_pat        	
 J1160           	1.187884    	DMA1_pat        	
 J1161           	.543677     	DMA1_pat        	
 J431            	1.055298    	DMA1_pat        	
 J432            	.3459353    	DMA1_pat        	
 J433            	.3100225    	DMA1_pat        	
 J434            	.9722651    	DMA1_pat        	
 J435            	.1345244    	DMA1_pat        	
 J436            	.7632859    	DMA1_pat        	
 J438            	1.50955     	DMA1_pat        	
 J1169           	.4356139    	DMA3_pat        	
 J439            	1.308687    	DMA1_pat        	
 J330            	.6315042    	DMA4_pat        	
 J331            	.482775     	DMA4_pat        	
 J332            	1.324       	DMA1_pat        	
 J333            	1.052904    	DMA1_pat        	
 J334            	1.04607     	DMA1_pat        	
 J335            	.7140939    	DMA1_pat        	
 J336            	.1632897    	DMA1_pat        	
 J337            	.935067     	DMA1_pat        	
 J231            	1.157476    	DMA4_pat        	
 J232            	1.522863    	DMA4_pat        	
 J233            	0           	                	
 J234            	.03         	DMA2_pat        	
 J236            	.9056011    	DMA5_pat        	
 J237            	1.52694     	DMA5_pat        	
 J130            	.717102     	DMA2_pat        	
 J131            	1.129913    	DMA2_pat        	
 J132            	.8374234    	DMA2_pat        	
 J133            	.8562292    	DMA2_pat        	
 J60             	.7716334    	DMA5_pat        	
 J134            	.5891212    	DMA2_pat        	
 J135            	.6747236    	DMA2_pat        	
 J62             	.4495525    	DMA5_pat        	
 J64             	9.265584E-02	DMA5_pat        	
 J65             	.4064086    	DMA5_pat        	
 J66             	1.631797    	DMA5_pat        	
 J67             	.1015269    	DMA5_pat        	
 J68             	.6504859    	DMA5_pat        	
 J69             	.6083255    	DMA5_pat        	
 J1170           	.8164911    	DMA3_pat        	
 J441            	0           	                	
 J444            	.7907653    	DMA1_pat        	
 J341            	.4287795    	DMA1_pat        	
 J344            	1.04792     	DMA3_pat        	
 J345            	.9034503    	DMA3_pat        	
 J347            	.2605036    	DMA3_pat        	
 J348            	1.564242    	DMA4_pat        	
 J349            	1.090832    	DMA4_pat        	
 J241            	.8434789    	DMA5_pat        	
 J242            	.6507859    	DMA5_pat        	
 J243            	.1789589    	DMA5_pat        	
 J244            	1.306659    	DMA5_pat        	
 J245            	.7660681    	DMA5_pat        	
 J246            	1.256147    	DMA5_pat        	
 J247            	.9934909    	DMA5_pat        	
 J248            	1.387884    	DMA5_pat        	
 J249            	3.126389E-02	DMA5_pat        	
 J142            	.3506145    	DMA1_pat        	
 J143            	.1232556    	DMA1_pat        	
 J70             	.1757545    	DMA5_pat        	
 J144            	.5528242    	DMA1_pat        	
 J71             	.2137497    	DMA5_pat        	
 J72             	4.019444E-04	DMA5_pat        	
 J73             	.8946567    	DMA5_pat        	
 J74             	1.095092    	DMA5_pat        	
 J76             	.9066901    	DMA5_pat        	
 J77             	1.37902     	DMA5_pat        	
 J78             	.1364892    	DMA4_pat        	
 J350            	.3198709    	DMA3_pat        	
 J351            	1.131522    	DMA4_pat        	
 J352            	.7570131    	DMA4_pat        	
 J353            	.5950387    	DMA4_pat        	
 J354            	.2499683    	DMA4_pat        	
 J355            	1.173993    	DMA4_pat        	
 J358            	1.547977    	DMA4_pat        	
 J359            	.8836875    	DMA4_pat        	
 J250            	.1494022    	DMA5_pat        	
 J251            	1.262882    	DMA2_pat        	
 J252            	.6697367    	DMA2_pat        	
 J253            	.7697906    	DMA2_pat        	
 J254            	.8202762    	DMA2_pat        	
 J257            	.3460456    	DMA2_pat        	
 J154            	.54956      	DMA1_pat        	
 J155            	.1590483    	DMA1_pat        	
 J82             	.9829875    	DMA4_pat        	
 J156            	.2831225    	DMA1_pat        	
 J83             	1.546028    	DMA4_pat        	
 J84             	.1632164    	DMA5_pat        	
 J85             	.7397709    	DMA5_pat        	
 J159            	.4549114    	DMA1_pat        	
 J86             	1.454245    	DMA5_pat        	
 J87             	1.251146    	DMA5_pat        	
 J89             	.4549039    	DMA2_pat        	
 J360            	1.122745    	DMA4_pat        	
 J361            	.427715     	DMA4_pat        	
 J362            	.1498275    	DMA4_pat        	
 J363            	0           	                	
 J364            	0           	                	
 J365            	1.316882    	DMA1_pat        	
 J366            	.49543      	DMA1_pat        	
 J1208           	.392137     	DMA4_pat        	
 J367            	.8007911    	DMA1_pat        	
 J369            	.4243364    	DMA1_pat        	
 J160            	.5676775    	DMA1_pat        	
 J161            	7.488973E-02	DMA1_pat        	
 J162            	.8040467    	DMA1_pat        	
 J163            	.343362     	DMA1_pat        	
 J164            	1.440891    	DMA1_pat        	
 J91             	.9810478    	DMA2_pat        	
 J165            	1.258181    	DMA1_pat        	
 J166            	1.546472    	DMA1_pat        	
 J167            	.5516948    	DMA1_pat        	
 J94             	.904902     	DMA3_pat        	
 J95             	.1344856    	DMA1_pat        	
 J96             	1.057287    	DMA1_pat        	
 J97             	.6833945    	DMA1_pat        	
 J976            	1.600705    	DMA1_pat        	
 J571            	.1910389    	DMA2_pat        	
 J572            	1.539075    	DMA2_pat        	
 J573            	1.033683    	DMA2_pat        	
 J574            	.5795442    	DMA2_pat        	
 J575            	.2487428    	DMA2_pat        	
 J576            	.7999637    	DMA2_pat        	
 J370            	.365682     	DMA1_pat        	
 J371            	0           	                	
 J372            	.2173675    	DMA1_pat        	
 J373            	4.814306E-02	DMA1_pat        	
 J374            	.5756528    	DMA1_pat        	
 J375            	.9127809    	DMA1_pat        	
 J376            	1.538258    	DMA1_pat        	
 J377            	.8970772    	DMA1_pat        	
 J1219           	.6773689    	DMA1_pat        	
 J379            	1.412076    	DMA1_pat        	
 J171            	1.377043    	DMA1_pat        	
 J172            	1.120713    	DMA1_pat        	
 J173            	1.203158    	DMA1_pat        	
 J174            	1.661286    	DMA1_pat        	
 J175            	.5663434    	DMA1_pat        	
 J177            	.8253523    	DMA1_pat        	
 J179            	.6882797    	DMA1_pat        	
 J580            	1.158803    	DMA2_pat        	
 J486            	.2984822    	DMA2_pat        	
 J487            	.7048636    	DMA2_pat        	
 J488            	.9052951    	DMA2_pat        	
 J489            	1.357773    	DMA2_pat        	
 J381            	.9015225    	DMA4_pat        	
 J1223           	.7125556    	DMA1_pat        	
 J382            	.848447     	DMA4_pat        	
 J384            	0           	                	
 J385            	0           	                	
 J180            	.816384     	DMA1_pat        	
 J181            	1.134699    	DMA1_pat        	
 J1024           	1.477667    	DMA1_pat        	
 J183            	.6175256    	DMA1_pat        	
 J1025           	.5041625    	DMA1_pat        	
 J186            	.4881114    	DMA1_pat        	
 J187            	.2505189    	DMA1_pat        	
 J188            	.8830353    	DMA1_pat        	
 J189            	.3721031    	DMA1_pat        	
 J490            	.9742156    	DMA2_pat        	
 J491            	.6057645    	DMA2_pat        	
 J492            	1.459958    	DMA2_pat        	
 J493            	.7966903    	DMA2_pat        	
 J494            	.3177222    	DMA2_pat        	
 J495            	1.140104    	DMA2_pat        	
 J496            	1.245693    	DMA2_pat        	
 J497            	1.023225    	DMA2_pat        	
 J498            	1.303565    	DMA2_pat        	
 J500            	.2695728    	DMA2_pat        	
 J499            	1.3463      	DMA2_pat        	
 J501            	.3376972    	DMA2_pat        	
 J502            	1.594604    	DMA2_pat        	
 J503            	.1097517    	DMA2_pat        	
 J504            	.1025369    	DMA2_pat        	
 J394            	0           	                	
 J509            	.6326745    	DMA2_pat        	
 J399            	0           	                	
 J401            	0           	                	
 J406            	0           	                	
 J295            	.2896222    	DMA4_pat        	
 J407            	0           	                	
 J296            	1.191361    	DMA4_pat        	
 J408            	.8883706    	DMA1_pat        	
 J297            	.9350156    	DMA4_pat        	
 J298            	.3612225    	DMA4_pat        	
 J191            	.7800094    	DMA1_pat        	
 J303            	1.243924    	DMA4_pat        	
 J192            	1.253851    	DMA1_pat        	
 J193            	.6648872    	DMA1_pat        	
 J305            	1.505165    	DMA4_pat        	
 J194            	1.243345    	DMA1_pat        	
 J195            	.1475992    	DMA1_pat        	
 J196            	1.057619    	DMA1_pat        	
 J308            	1.18838     	DMA1_pat        	
 J198            	2.613722E-02	DMA1_pat        	
 J200            	.7185739    	DMA1_pat        	
 J199            	.6699712    	DMA1_pat        	
 J201            	.4588259    	DMA1_pat        	
 J202            	1.64229     	DMA1_pat        	
 J203            	1.337646    	DMA1_pat        	
 J204            	1.160168    	DMA1_pat        	
 J205            	.6959986    	DMA1_pat        	
 J206            	1.224147    	DMA1_pat        	
 J207            	.4619472    	DMA1_pat        	
 J208            	.5943106    	DMA1_pat        	
 J101            	.7224287    	DMA1_pat        	
 J102            	1.574952    	DMA1_pat        	
 J109            	.2025833    	DMA1_pat        	
 J1              	1.076586    	DMA1_pat        	
 J2              	.5797212    	DMA1_pat        	
 J3              	.1740539    	DMA1_pat        	
 J4              	.3090042    	DMA1_pat        	
 J5              	.1294744    	DMA1_pat        	
 J6              	.7212659    	DMA1_pat        	
 J7              	1.598785    	DMA1_pat        	
 J8              	.9033823    	DMA1_pat        	
 J9              	.8239611    	DMA1_pat        	
 J10             	1.621611    	DMA1_pat        	
 J11             	.3629998    	DMA1_pat        	
 J12             	.631652     	DMA1_pat        	
 J13             	.6597406    	DMA1_pat        	
 J14             	0           	                	
 J15             	0           	                	
 J16             	0           	                	
 J17             	0           	                	
 J18             	0           	                	
 J19             	0           	                	
 J20             	0           	                	
 J21             	0           	                	
 J22             	0           	                	
 J23             	0           	                	
 J25             	.1074853    	DMA2_pat        	
 J26             	1.260154    	DMA2_pat        	
 J27             	1.167524    	DMA2_pat        	
 J28             	.8284517    	DMA2_pat        	
 J29             	.2590595    	DMA2_pat        	
 J30             	.3728958    	DMA2_pat        	
 J31             	.5435734    	DMA2_pat        	
 J32             	1.307481    	DMA2_pat        	
 J33             	8.377139E-02	DMA2_pat        	
 J34             	.86336      	DMA2_pat        	
 J35             	1.261716    	DMA2_pat        	
 J36             	1.33445     	DMA2_pat        	
 J37             	.5420092    	DMA2_pat        	
 J38             	1.621215    	DMA2_pat        	
 J24             	1.340445    	DMA1_pat        	
 J39             	1.12471     	DMA1_pat        	
 J40             	1.508549    	DMA1_pat        	
 J123            	1.459633    	DMA3_pat        	
 J140            	.694414     	DMA3_pat        	
 J141            	.2051381    	DMA3_pat        	
 J157            	1.590263    	DMA3_pat        	
 J158            	1.328829    	DMA3_pat        	
 J168            	1.160475    	DMA3_pat        	
 J170            	.6693408    	DMA3_pat        	
 J176            	2.716278E-02	DMA3_pat        	
 J178            	.2796047    	DMA3_pat        	
 J184            	.2737236    	DMA3_pat        	
 J185            	.8495334    	DMA3_pat        	
 J190            	.6767712    	DMA3_pat        	
 J197            	.1768897    	DMA3_pat        	
 J213            	.4602056    	DMA3_pat        	
 J215            	1.071745    	DMA3_pat        	
 J216            	1.415167    	DMA3_pat        	
 J227            	.8299486    	DMA3_pat        	
 J238            	.3129586    	DMA3_pat        	
 J239            	1.494361    	DMA3_pat        	
 J255            	.6213573    	DMA3_pat        	
 J256            	0           	                	
 J258            	1.284721    	DMA3_pat        	
 J260            	.3633339    	DMA3_pat        	
 J265            	.7449886    	DMA3_pat        	
 J266            	.3933797    	DMA3_pat        	
 J267            	1.463974    	DMA4_pat        	
 J61             	1.017388    	DMA5_pat        	
 J92             	.6240537    	DMA5_pat        	
 J268            	.6491698    	DMA4_pat        	
 J278            	1.434316    	DMA2_pat        	
 J281            	.9765631    	DMA2_pat        	
 J283            	1.552599    	DMA2_pat        	
 J284            	.8619875    	DMA2_pat        	
 J136            	.5505014    	DMA2_pat        	
 J137            	1.447423    	DMA1_pat        	
 J145            	.4317684    	DMA3_pat        	
 J118            	.4325689    	DMA5_pat        	
 J52             	.2978225    	DMA4_pat        	
 J81             	.578262     	DMA2_pat        	
 J88             	4.176111E-03	DMA2_pat        	
 J90             	1.237237    	DMA2_pat        	
 J93             	4.204435    	DMA2_pat        	
 J147            	.4643159    	DMA2_pat        	
 J148            	1.171617    	DMA2_pat        	
 J149            	.6747745    	DMA2_pat        	